none
     RDKit          3D

140143  0  0  0  0  0  0  0  0999 V2000
    5.6201    4.8202   -0.7895 N   0  0  0  0  0  0  0  0  0  0  0  0
    5.1349    4.7578    0.5852 C   0  0  0  0  0  0  0  0  0  0  0  0
    4.4282    3.4417    0.9096 C   0  0  0  0  0  0  0  0  0  0  0  0
    4.9659    2.3546    0.6600 O   0  0  0  0  0  0  0  0  0  0  0  0
    3.1889    3.5126    1.4605 N   0  0  0  0  0  0  0  0  0  0  0  0
    2.3739    2.3222    1.6115 C   0  0  0  0  0  0  0  0  0  0  0  0
    0.9031    2.7056    1.4821 C   0  0  0  0  0  0  0  0  0  0  0  0
    0.4973    3.8492    1.7478 O   0  0  0  0  0  0  0  0  0  0  0  0
    2.6460    1.5920    2.9599 C   0  0  0  0  0  0  0  0  0  0  0  0
    2.0810    0.1918    3.0012 C   0  0  0  0  0  0  0  0  0  0  0  0
    2.6412   -0.8065    2.1881 C   0  0  0  0  0  0  0  0  0  0  0  0
    0.9848   -0.1576    3.8022 C   0  0  0  0  0  0  0  0  0  0  0  0
    2.1268   -2.0998    2.1600 C   0  0  0  0  0  0  0  0  0  0  0  0
    0.4584   -1.4521    3.7888 C   0  0  0  0  0  0  0  0  0  0  0  0
    1.0176   -2.4298    2.9541 C   0  0  0  0  0  0  0  0  0  0  0  0
    0.4578   -3.6734    2.9514 O   0  0  0  0  0  0  0  0  0  0  0  0
    0.0959    1.6990    1.0929 N   0  0  0  0  0  0  0  0  0  0  0  0
   -1.3504    1.8231    1.0514 C   0  0  0  0  0  0  0  0  0  0  0  0
   -1.9127    0.4757    1.5160 C   0  0  0  0  0  0  0  0  0  0  0  0
   -1.8347   -0.5103    0.7668 O   0  0  0  0  0  0  0  0  0  0  0  0
   -1.8860    2.1279   -0.3575 C   0  0  0  0  0  0  0  0  0  0  0  0
   -3.3675    2.3827   -0.3139 C   0  0  0  0  0  0  0  0  0  0  0  0
   -4.0474    2.2780    0.7032 O   0  0  0  0  0  0  0  0  0  0  0  0
   -3.8867    2.7224   -1.4935 O   0  0  0  0  0  0  0  0  0  0  0  0
   -2.5010    0.3741    2.7256 N   0  0  0  0  0  0  0  0  0  0  0  0
   -3.0637   -0.9260    3.1159 C   0  0  0  0  0  0  0  0  0  0  0  0
   -4.1781   -1.3959    2.1652 C   0  0  0  0  0  0  0  0  0  0  0  0
   -4.3604   -2.5961    1.9642 O   0  0  0  0  0  0  0  0  0  0  0  0
   -3.5484   -0.6792    4.5573 C   0  0  0  0  0  0  0  0  0  0  0  0
   -3.8823    0.8207    4.5763 C   0  0  0  0  0  0  0  0  0  0  0  0
   -2.7887    1.4446    3.6970 C   0  0  0  0  0  0  0  0  0  0  0  0
   -4.9336   -0.4276    1.5808 N   0  0  0  0  0  0  0  0  0  0  0  0
   -5.9595   -0.7522    0.5926 C   0  0  0  0  0  0  0  0  0  0  0  0
   -5.4415   -1.4795   -0.6647 C   0  0  0  0  0  0  0  0  0  0  0  0
   -6.2245   -2.1567   -1.3189 O   0  0  0  0  0  0  0  0  0  0  0  0
   -6.7276    0.5492    0.2311 C   0  0  0  0  0  0  0  0  0  0  0  0
   -7.1734    0.6639   -1.2402 C   0  0  0  0  0  0  0  0  0  0  0  0
   -7.7191    2.0418   -1.5111 C   0  0  0  0  0  0  0  0  0  0  0  0
   -6.7072    2.9865   -1.5275 O   0  0  0  0  0  0  0  0  0  0  0  0
   -8.8656    2.3626   -1.6826 O   0  0  0  0  0  0  0  0  0  0  0  0
   -4.1405   -1.2753   -1.0254 N   0  0  0  0  0  0  0  0  0  0  0  0
   -3.5470   -2.0212   -2.1221 C   0  0  0  0  0  0  0  0  0  0  0  0
   -2.5458   -3.0832   -1.6436 C   0  0  0  0  0  0  0  0  0  0  0  0
   -1.8531   -3.7108   -2.4620 O   0  0  0  0  0  0  0  0  0  0  0  0
   -2.8387   -1.0933   -3.1379 C   0  0  0  0  0  0  0  0  0  0  0  0
   -1.7116   -0.4687   -2.5091 O   0  0  0  0  0  0  0  0  0  0  0  0
   -3.7704   -0.0203   -3.6841 C   0  0  0  0  0  0  0  0  0  0  0  0
   -2.4061   -3.2287   -0.3142 N   0  0  0  0  0  0  0  0  0  0  0  0
   -1.3620   -4.0247    0.2875 C   0  0  0  0  0  0  0  0  0  0  0  0
    0.0766   -3.6330   -0.0637 C   0  0  0  0  0  0  0  0  0  0  0  0
    0.9887   -4.4075    0.2567 O   0  0  0  0  0  0  0  0  0  0  0  0
    0.2900   -2.4752   -0.7279 N   0  0  0  0  0  0  0  0  0  0  0  0
    1.5163   -2.2514   -1.4647 C   0  0  0  0  0  0  0  0  0  0  0  0
    1.9445   -0.7861   -1.3940 C   0  0  0  0  0  0  0  0  0  0  0  0
    1.2577    0.0787   -0.8299 O   0  0  0  0  0  0  0  0  0  0  0  0
    1.3676   -2.7508   -2.9433 C   0  0  0  0  0  0  0  0  0  0  0  0
    0.1714   -2.2379   -3.5228 O   0  0  0  0  0  0  0  0  0  0  0  0
    1.4151   -4.2732   -3.0415 C   0  0  0  0  0  0  0  0  0  0  0  0
    3.1192   -0.5030   -1.9971 N   0  0  0  0  0  0  0  0  0  0  0  0
    3.9660    0.6552   -1.6645 C   0  0  0  0  0  0  0  0  0  0  0  0
    3.5657    1.9910   -2.3295 C   0  0  0  0  0  0  0  0  0  0  0  0
    4.4078    2.7238   -2.8352 O   0  0  0  0  0  0  0  0  0  0  0  0
    5.4398    0.3198   -1.9960 C   0  0  0  0  0  0  0  0  0  0  0  0
    5.8347   -1.0355   -1.4925 C   0  0  0  0  0  0  0  0  0  0  0  0
    5.9604   -2.1904   -2.2388 C   0  0  0  0  0  0  0  0  0  0  0  0
    6.0288   -1.4202   -0.1130 C   0  0  0  0  0  0  0  0  0  0  0  0
    6.2061   -3.2682   -1.4025 N   0  0  0  0  0  0  0  0  0  0  0  0
    6.2569   -2.8258   -0.0949 C   0  0  0  0  0  0  0  0  0  0  0  0
    6.0452   -0.7009    1.0990 C   0  0  0  0  0  0  0  0  0  0  0  0
    6.4765   -3.5309    1.0972 C   0  0  0  0  0  0  0  0  0  0  0  0
    6.2656   -1.4006    2.2817 C   0  0  0  0  0  0  0  0  0  0  0  0
    6.4731   -2.7986    2.2819 C   0  0  0  0  0  0  0  0  0  0  0  0
    2.2397    2.3102   -2.2562 N   0  0  0  0  0  0  0  0  0  0  0  0
    1.7511    3.6113   -2.6894 C   0  0  0  0  0  0  0  0  0  0  0  0
    1.5795    4.4942   -1.4579 C   0  0  0  0  0  0  0  0  0  0  0  0
    0.3259    4.4239   -0.9649 O   0  0  0  0  0  0  0  0  0  0  0  0
    2.4721    5.1122   -0.9198 O   0  0  0  0  0  0  0  0  0  0  0  0
    6.1269    3.9536   -0.9884 H   0  0  0  0  0  0  0  0  0  0  0  0
    4.8097    4.7847   -1.4132 H   0  0  0  0  0  0  0  0  0  0  0  0
    5.9919    4.8353    1.2787 H   0  0  0  0  0  0  0  0  0  0  0  0
    4.4709    5.6146    0.7761 H   0  0  0  0  0  0  0  0  0  0  0  0
    2.7033    4.4039    1.4981 H   0  0  0  0  0  0  0  0  0  0  0  0
    2.6267    1.6256    0.8008 H   0  0  0  0  0  0  0  0  0  0  0  0
    3.7419    1.5580    3.0608 H   0  0  0  0  0  0  0  0  0  0  0  0
    2.2548    2.2095    3.7843 H   0  0  0  0  0  0  0  0  0  0  0  0
    3.5092   -0.5750    1.5688 H   0  0  0  0  0  0  0  0  0  0  0  0
    0.5307    0.5965    4.4522 H   0  0  0  0  0  0  0  0  0  0  0  0
    2.5764   -2.8632    1.5227 H   0  0  0  0  0  0  0  0  0  0  0  0
   -0.3849   -1.7272    4.4255 H   0  0  0  0  0  0  0  0  0  0  0  0
    0.8297   -4.1829    2.2016 H   0  0  0  0  0  0  0  0  0  0  0  0
    0.5017    0.8426    0.7101 H   0  0  0  0  0  0  0  0  0  0  0  0
   -1.6182    2.6414    1.7280 H   0  0  0  0  0  0  0  0  0  0  0  0
   -1.3782    3.0036   -0.7840 H   0  0  0  0  0  0  0  0  0  0  0  0
   -1.6984    1.2800   -1.0401 H   0  0  0  0  0  0  0  0  0  0  0  0
   -4.8638    2.8335   -1.4027 H   0  0  0  0  0  0  0  0  0  0  0  0
   -2.2945   -1.7063    3.0599 H   0  0  0  0  0  0  0  0  0  0  0  0
   -4.3950   -1.3265    4.8253 H   0  0  0  0  0  0  0  0  0  0  0  0
   -2.7221   -0.8973    5.2536 H   0  0  0  0  0  0  0  0  0  0  0  0
   -4.8698    0.9917    4.1176 H   0  0  0  0  0  0  0  0  0  0  0  0
   -3.8994    1.2492    5.5885 H   0  0  0  0  0  0  0  0  0  0  0  0
   -1.8809    1.6836    4.2773 H   0  0  0  0  0  0  0  0  0  0  0  0
   -3.1320    2.3502    3.1799 H   0  0  0  0  0  0  0  0  0  0  0  0
   -4.6056    0.5354    1.6130 H   0  0  0  0  0  0  0  0  0  0  0  0
   -6.6465   -1.4899    1.0303 H   0  0  0  0  0  0  0  0  0  0  0  0
   -7.6078    0.6412    0.8865 H   0  0  0  0  0  0  0  0  0  0  0  0
   -6.0768    1.4062    0.4497 H   0  0  0  0  0  0  0  0  0  0  0  0
   -6.3094    0.5090   -1.9050 H   0  0  0  0  0  0  0  0  0  0  0  0
   -7.9376   -0.0788   -1.4967 H   0  0  0  0  0  0  0  0  0  0  0  0
   -7.1370    3.8494   -1.6781 H   0  0  0  0  0  0  0  0  0  0  0  0
   -3.4992   -0.7717   -0.4138 H   0  0  0  0  0  0  0  0  0  0  0  0
   -4.3704   -2.5462   -2.6294 H   0  0  0  0  0  0  0  0  0  0  0  0
   -2.4938   -1.7390   -3.9622 H   0  0  0  0  0  0  0  0  0  0  0  0
   -0.9015   -0.8678   -2.8901 H   0  0  0  0  0  0  0  0  0  0  0  0
   -3.2560    0.5540   -4.4690 H   0  0  0  0  0  0  0  0  0  0  0  0
   -4.6847   -0.4668   -4.1073 H   0  0  0  0  0  0  0  0  0  0  0  0
   -4.0524    0.6815   -2.8865 H   0  0  0  0  0  0  0  0  0  0  0  0
   -3.0584   -2.7705    0.3152 H   0  0  0  0  0  0  0  0  0  0  0  0
   -1.4680   -3.9692    1.3791 H   0  0  0  0  0  0  0  0  0  0  0  0
   -1.4376   -5.0837   -0.0065 H   0  0  0  0  0  0  0  0  0  0  0  0
   -0.4694   -1.8064   -0.8456 H   0  0  0  0  0  0  0  0  0  0  0  0
    2.3070   -2.8432   -0.9773 H   0  0  0  0  0  0  0  0  0  0  0  0
    2.1948   -2.3223   -3.5334 H   0  0  0  0  0  0  0  0  0  0  0  0
   -0.5559   -2.8586   -3.2748 H   0  0  0  0  0  0  0  0  0  0  0  0
    1.3463   -4.5728   -4.0985 H   0  0  0  0  0  0  0  0  0  0  0  0
    2.3481   -4.6696   -2.6118 H   0  0  0  0  0  0  0  0  0  0  0  0
    0.5683   -4.7212   -2.5017 H   0  0  0  0  0  0  0  0  0  0  0  0
    3.6678   -1.3095   -2.2919 H   0  0  0  0  0  0  0  0  0  0  0  0
    3.8951    0.8361   -0.5810 H   0  0  0  0  0  0  0  0  0  0  0  0
    5.5891    0.3933   -3.0841 H   0  0  0  0  0  0  0  0  0  0  0  0
    6.0457    1.1105   -1.5342 H   0  0  0  0  0  0  0  0  0  0  0  0
    5.9125   -2.3237   -3.3181 H   0  0  0  0  0  0  0  0  0  0  0  0
    6.4015   -4.2113   -1.7073 H   0  0  0  0  0  0  0  0  0  0  0  0
    5.8784    0.3777    1.1023 H   0  0  0  0  0  0  0  0  0  0  0  0
    6.6446   -4.6105    1.0969 H   0  0  0  0  0  0  0  0  0  0  0  0
    6.2714   -0.8620    3.2321 H   0  0  0  0  0  0  0  0  0  0  0  0
    6.6366   -3.3161    3.2301 H   0  0  0  0  0  0  0  0  0  0  0  0
    1.6256    1.6877   -1.7252 H   0  0  0  0  0  0  0  0  0  0  0  0
    0.3370    4.7239   -0.0260 H   0  0  0  0  0  0  0  0  0  0  0  0
    2.5089    4.0560   -3.3456 H   0  0  0  0  0  0  0  0  0  0  0  0
    0.7942    3.4992   -3.2190 H   0  0  0  0  0  0  0  0  0  0  0  0
  1  2  1  0
  2  3  1  0
  3  4  2  0
  3  5  1  0
  5  6  1  0
  6  7  1  0
  6  9  1  0
  7  8  2  0
  7 17  1  0
  9 10  1  0
 10 11  2  0
 10 12  1  0
 11 13  1  0
 12 14  2  0
 13 15  2  0
 14 15  1  0
 15 16  1  0
 17 18  1  0
 18 19  1  0
 18 21  1  0
 19 20  2  0
 19 25  1  0
 21 22  1  0
 22 23  2  0
 22 24  1  0
 25 26  1  0
 25 31  1  0
 26 27  1  0
 26 29  1  0
 27 28  2  0
 27 32  1  0
 29 30  1  0
 30 31  1  0
 32 33  1  0
 33 34  1  0
 33 36  1  0
 34 35  2  0
 34 41  1  0
 36 37  1  0
 37 38  1  0
 38 39  1  0
 38 40  2  0
 41 42  1  0
 42 43  1  0
 42 45  1  0
 43 44  2  0
 43 48  1  0
 45 46  1  0
 45 47  1  0
 48 49  1  0
 49 50  1  0
 50 51  2  0
 50 52  1  0
 52 53  1  0
 53 54  1  0
 53 56  1  0
 54 55  2  0
 54 59  1  0
 56 57  1  0
 56 58  1  0
 59 60  1  0
 60 61  1  0
 60 63  1  0
 61 62  2  0
 61 73  1  0
 63 64  1  0
 64 65  2  0
 64 66  1  0
 65 67  1  0
 66 68  2  0
 66 69  1  0
 67 68  1  0
 68 70  1  0
 69 71  2  0
 70 72  2  0
 71 72  1  0
 73 74  1  0
 74 75  1  0
 75 76  1  0
 75 77  2  0
  1 78  1  0
  1 79  1  0
  2 80  1  0
  2 81  1  0
  5 82  1  0
  6 83  1  0
  9 84  1  0
  9 85  1  0
 11 86  1  0
 12 87  1  0
 13 88  1  0
 14 89  1  0
 16 90  1  0
 17 91  1  0
 18 92  1  0
 21 93  1  0
 21 94  1  0
 24 95  1  0
 26 96  1  0
 29 97  1  0
 29 98  1  0
 30 99  1  0
 30100  1  0
 31101  1  0
 31102  1  0
 32103  1  0
 33104  1  0
 36105  1  0
 36106  1  0
 37107  1  0
 37108  1  0
 39109  1  0
 41110  1  0
 42111  1  0
 45112  1  0
 46113  1  0
 47114  1  0
 47115  1  0
 47116  1  0
 48117  1  0
 49118  1  0
 49119  1  0
 52120  1  0
 53121  1  0
 56122  1  0
 57123  1  0
 58124  1  0
 58125  1  0
 58126  1  0
 59127  1  0
 60128  1  0
 63129  1  0
 63130  1  0
 65131  1  0
 67132  1  0
 69133  1  0
 70134  1  0
 71135  1  0
 72136  1  0
 73137  1  0
 74139  1  0
 74140  1  0
 76138  1  0
M  END
>  <smiles_oechem>  (1)
CC(C(C(=O)NC(Cc1c[nH]c2c1cccc2)C(=O)NCC(=O)O)NC(=O)CNC(=O)C(C(C)O)NC(=O)C(CCC(=O)O)NC(=O)C3CCCN3C(=O)C(CC(=O)O)NC(=O)C(Cc4ccc(cc4)O)NC(=O)CN)O

$$$$